test/data/epri21.json
{
  "area": [], 
  "baseMVA": 100.0, 
  "branch": [
    {
      "angmax": 30.0, 
      "angmin": -30.0, 
      "baseMVA": 100.0, 
      "br_b": 0.539, 
      "br_r": 0.00295, 
      "br_rdc": 0.00295, 
      "br_status": 1, 
      "br_x": 0.0315, 
      "data": {}, 
      "dist_e_km": 120.60003474069319, 
      "dist_n_km": -7.2771753660412983, 
      "f_bus": 2, 
      "gmd_br": 1, 
      "gmd_r_Ohms": 3.5, 
      "gmd_vdc": 120.60003474069319, 
      "hi_bus": 2, 
      "index": 1, 
      "len_km": 120.81939273462899, 
      "lo_bus": 3, 
      "name": "br1", 
      "rate_a": 2120.0, 
      "rate_b": 0.0, 
      "rate_c": 0.0, 
      "shift": 0.0, 
      "sub": null, 
      "t_bus": 3, 
      "tap": 0.0, 
      "type": "line"
    }, 
    {
      "angmax": 30.0, 
      "angmin": -30.0, 
      "baseMVA": 100.0, 
      "br_b": 0.0, 
      "br_r": 0.00094, 
      "br_rdc": 0.00094, 
      "br_status": 1, 
      "br_x": 0.01545, 
      "data": {}, 
      "dist_e_km": 131.69381509799459, 
      "dist_n_km": -93.472831319090773, 
      "f_bus": 4, 
      "gmd_br": 2, 
      "gmd_r_Ohms": 2.3, 
      "gmd_vdc": 131.6938150979946, 
      "hi_bus": 4, 
      "index": 2, 
      "len_km": 161.49436872495582, 
      "lo_bus": 5, 
      "name": "br2", 
      "rate_a": 2000.0, 
      "rate_b": 0.0, 
      "rate_c": 0.0, 
      "shift": 0.0, 
      "sub": null, 
      "t_bus": 5, 
      "tap": 0.0, 
      "type": "line"
    }, 
    {
      "angmax": 30.0, 
      "angmin": -30.0, 
      "baseMVA": 100.0, 
      "br_b": 1.65, 
      "br_r": 0.00094, 
      "br_rdc": 0.00094, 
      "br_status": 1, 
      "br_x": 0.01545, 
      "data": {}, 
      "dist_e_km": 131.69381509799459, 
      "dist_n_km": -93.472831319090773, 
      "f_bus": 4, 
      "gmd_br": 3, 
      "gmd_r_Ohms": 2.3, 
      "gmd_vdc": 131.6938150979946, 
      "hi_bus": 4, 
      "index": 3, 
      "len_km": 161.49436872495582, 
      "lo_bus": 5, 
      "name": "br3", 
      "rate_a": 2000.0, 
      "rate_b": 0.0, 
      "rate_c": 0.0, 
      "shift": 0.0, 
      "sub": null, 
      "t_bus": 5, 
      "tap": 0.0, 
      "type": "line"
    }, 
    {
      "angmax": 30.0, 
      "angmin": -30.0, 
      "baseMVA": 100.0, 
      "br_b": 3.28, 
      "br_r": 0.00187, 
      "br_rdc": 0.00187, 
      "br_status": 1, 
      "br_x": 0.03075, 
      "data": {}, 
      "dist_e_km": 321.26122065824649, 
      "dist_n_km": -18.920736984248347, 
      "f_bus": 4, 
      "gmd_br": 4, 
      "gmd_r_Ohms": 4.7, 
      "gmd_vdc": 321.2612206582465, 
      "hi_bus": 4, 
      "index": 4, 
      "len_km": 321.81790843092256, 
      "lo_bus": 6, 
      "name": "br4", 
      "rate_a": 2000.0, 
      "rate_b": 0.0, 
      "rate_c": 0.0, 
      "shift": 0.0, 
      "sub": null, 
      "t_bus": 6, 
      "tap": 0.0, 
      "type": "line"
    }, 
    {
      "angmax": 30.0, 
      "angmin": -30.0, 
      "baseMVA": 100.0, 
      "br_b": 2.464, 
      "br_r": 0.00119, 
      "br_rdc": 0.00119, 
      "br_status": 1, 
      "br_x": 0.0178, 
      "data": {}, 
      "dist_e_km": 190.9859010213294, 
      "dist_n_km": 74.552097632321363, 
      "f_bus": 5, 
      "gmd_br": 5, 
      "gmd_r_Ohms": 3.0, 
      "gmd_vdc": 190.9859010213294, 
      "hi_bus": 5, 
      "index": 5, 
      "len_km": 205.02104684716693, 
      "lo_bus": 6, 
      "name": "br5", 
      "rate_a": 2000.0, 
      "rate_b": 0.0, 
      "rate_c": 0.0, 
      "shift": 0.0, 
      "sub": null, 
      "t_bus": 6, 
      "tap": 0.0, 
      "type": "line"
    }, 
    {
      "angmax": 30.0, 
      "angmin": -30.0, 
      "baseMVA": 100.0, 
      "br_b": 1.017, 
      "br_r": 0.00058, 
      "br_rdc": 0.00058, 
      "br_status": 1, 
      "br_x": 0.00961, 
      "data": {}, 
      "dist_e_km": -20.137238063195745, 
      "dist_n_km": 97.043791804871788, 
      "f_bus": 6, 
      "gmd_br": 6, 
      "gmd_r_Ohms": 1.4, 
      "gmd_vdc": -20.137238063195745, 
      "hi_bus": 6, 
      "index": 6, 
      "len_km": 99.11107851638545, 
      "lo_bus": 11, 
      "name": "br6", 
      "rate_a": 2000.0, 
      "rate_b": 0.0, 
      "rate_c": 0.0, 
      "shift": 0.0, 
      "sub": null, 
      "t_bus": 11, 
      "tap": 0.0, 
      "type": "line"
    }, 
    {
      "angmax": 30.0, 
      "angmin": -30.0, 
      "baseMVA": 100.0, 
      "br_b": 1.63, 
      "br_r": 0.00093, 
      "br_rdc": 0.00093, 
      "br_status": 1, 
      "br_x": 0.0163, 
      "data": {}, 
      "dist_e_km": 160.17017349968367, 
      "dist_n_km": -6.2784843142589573, 
      "f_bus": 11, 
      "gmd_br": 7, 
      "gmd_r_Ohms": 2.3, 
      "gmd_vdc": 160.17017349968367, 
      "hi_bus": 11, 
      "index": 7, 
      "len_km": 160.29318090362787, 
      "lo_bus": 12, 
      "name": "br7", 
      "rate_a": 1200.0, 
      "rate_b": 0.0, 
      "rate_c": 0.0, 
      "shift": 0.0, 
      "sub": null, 
      "t_bus": 12, 
      "tap": 0.0, 
      "type": "line"
    }, 
    {
      "angmax": 30.0, 
      "angmin": -30.0, 
      "baseMVA": 100.0, 
      "br_b": 1.4, 
      "br_r": 0.00079, 
      "br_rdc": 0.00079, 
      "br_status": 1, 
      "br_x": 0.0138, 
      "data": {}, 
      "dist_e_km": -129.27518497259706, 
      "dist_n_km": -45.162776816971295, 
      "f_bus": 15, 
      "gmd_br": 8, 
      "gmd_r_Ohms": 2.0, 
      "gmd_vdc": -129.27518497259706, 
      "hi_bus": 15, 
      "index": 8, 
      "len_km": 136.9370288107594, 
      "lo_bus": 4, 
      "name": "br8", 
      "rate_a": 2000.0, 
      "rate_b": 0.0, 
      "rate_c": 0.0, 
      "shift": 0.0, 
      "sub": null, 
      "t_bus": 4, 
      "tap": 0.0, 
      "type": "line"
    }, 
    {
      "angmax": 30.0, 
      "angmin": -30.0, 
      "baseMVA": 100.0, 
      "br_b": 2.05, 
      "br_r": 0.00117, 
      "br_rdc": 0.00117, 
      "br_status": 1, 
      "br_x": 0.0192, 
      "data": {}, 
      "dist_e_km": 191.10519725958079, 
      "dist_n_km": -64.083512477756599, 
      "f_bus": 15, 
      "gmd_br": 9, 
      "gmd_r_Ohms": 2.9, 
      "gmd_vdc": 191.1051972595808, 
      "hi_bus": 15, 
      "index": 9, 
      "len_km": 201.56362020739277, 
      "lo_bus": 6, 
      "name": "br9", 
      "rate_a": 2000.0, 
      "rate_b": 0.0, 
      "rate_c": 0.0, 
      "shift": 0.0, 
      "sub": null, 
      "t_bus": 6, 
      "tap": 0.0, 
      "type": "line"
    }, 
    {
      "angmax": 30.0, 
      "angmin": -30.0, 
      "baseMVA": 100.0, 
      "br_b": 2.05, 
      "br_r": 0.00117, 
      "br_rdc": 0.00117, 
      "br_status": 1, 
      "br_x": 0.0192, 
      "data": {}, 
      "dist_e_km": 191.10519725958079, 
      "dist_n_km": -64.083512477756599, 
      "f_bus": 15, 
      "gmd_br": 10, 
      "gmd_r_Ohms": 2.9, 
      "gmd_vdc": 191.1051972595808, 
      "hi_bus": 15, 
      "index": 10, 
      "len_km": 201.56362020739277, 
      "lo_bus": 6, 
      "name": "br10", 
      "rate_a": 2000.0, 
      "rate_b": 0.0, 
      "rate_c": 0.0, 
      "shift": 0.0, 
      "sub": null, 
      "t_bus": 6, 
      "tap": 0.0, 
      "type": "line"
    }, 
    {
      "angmax": 30.0, 
      "angmin": -30.0, 
      "baseMVA": 100.0, 
      "br_b": 0.623, 
      "br_r": 0.0034, 
      "br_rdc": 0.0034, 
      "br_status": 1, 
      "br_x": 0.0348, 
      "data": {}, 
      "dist_e_km": 1.4850062354159403, 
      "dist_n_km": -138.63559372667325, 
      "f_bus": 16, 
      "gmd_br": 11, 
      "gmd_r_Ohms": 4.0, 
      "gmd_vdc": 1.4850062354159403, 
      "hi_bus": 16, 
      "index": 11, 
      "len_km": 138.6435468799988, 
      "lo_bus": 20, 
      "name": "br11", 
      "rate_a": 2120.0, 
      "rate_b": 0.0, 
      "rate_c": 0.0, 
      "shift": 0.0, 
      "sub": null, 
      "t_bus": 20, 
      "tap": 0.0, 
      "type": "line"
    }, 
    {
      "angmax": 30.0, 
      "angmin": -30.0, 
      "baseMVA": 100.0, 
      "br_b": 0.714, 
      "br_r": 0.00392, 
      "br_rdc": 0.00392, 
      "br_status": 1, 
      "br_x": 0.0382, 
      "data": {}, 
      "dist_e_km": -155.55611343458276, 
      "dist_n_km": 39.420749874879881, 
      "f_bus": 16, 
      "gmd_br": 12, 
      "gmd_r_Ohms": 4.7, 
      "gmd_vdc": -155.55611343458276, 
      "hi_bus": 16, 
      "index": 12, 
      "len_km": 160.47336211212942, 
      "lo_bus": 17, 
      "name": "br12", 
      "rate_a": 2120.0, 
      "rate_b": 0.0, 
      "rate_c": 0.0, 
      "shift": 0.0, 
      "sub": null, 
      "t_bus": 17, 
      "tap": 0.0, 
      "type": "line"
    }, 
    {
      "angmax": 30.0, 
      "angmin": -30.0, 
      "baseMVA": 100.0, 
      "br_b": 1.064, 
      "br_r": 0.00583, 
      "br_rdc": 0.00583, 
      "br_status": 1, 
      "br_x": 0.0542, 
      "data": {}, 
      "dist_e_km": 158.17375406876596, 
      "dist_n_km": -178.05632014306522, 
      "f_bus": 17, 
      "gmd_br": 13, 
      "gmd_r_Ohms": 6.9, 
      "gmd_vdc": 158.17375406876596, 
      "hi_bus": 17, 
      "index": 13, 
      "len_km": 238.16588676612818, 
      "lo_bus": 20, 
      "name": "br13", 
      "rate_a": 2120.0, 
      "rate_b": 0.0, 
      "rate_c": 0.0, 
      "shift": 0.0, 
      "sub": null, 
      "t_bus": 20, 
      "tap": 0.0, 
      "type": "line"
    }, 
    {
      "angmax": 30.0, 
      "angmin": -30.0, 
      "baseMVA": 100.0, 
      "br_b": 0.54, 
      "br_r": 0.00296, 
      "br_rdc": 0.00296, 
      "br_status": 1, 
      "br_x": 0.031, 
      "data": {}, 
      "dist_e_km": -93.157180790922851, 
      "dist_n_km": -77.306348912361742, 
      "f_bus": 17, 
      "gmd_br": 14, 
      "gmd_r_Ohms": 3.5, 
      "gmd_vdc": -93.15718079092285, 
      "hi_bus": 17, 
      "index": 14, 
      "len_km": 121.05590409010416, 
      "lo_bus": 2, 
      "name": "br14", 
      "rate_a": 2120.0, 
      "rate_b": 0.0, 
      "rate_c": 0.0, 
      "shift": 0.0, 
      "sub": null, 
      "t_bus": 2, 
      "tap": 0.0, 
      "type": "line"
    }, 
    {
      "angmax": 30.0, 
      "angmin": -30.0, 
      "baseMVA": 100.0, 
      "br_b": 2.472, 
      "br_r": 0.0014, 
      "br_rdc": 0.0014, 
      "br_status": 1, 
      "br_x": 0.02325, 
      "data": {}, 
      "dist_e_km": 169.82073202204822, 
      "dist_n_km": 171.59585897700214, 
      "f_bus": 21, 
      "gmd_br": 15, 
      "gmd_r_Ohms": 3.5, 
      "gmd_vdc": 169.82073202204822, 
      "hi_bus": 21, 
      "index": 15, 
      "len_km": 241.42124977424734, 
      "lo_bus": 11, 
      "name": "br15", 
      "rate_a": 2000.0, 
      "rate_b": 0.0, 
      "rate_c": 0.0, 
      "shift": 0.0, 
      "sub": null, 
      "t_bus": 11, 
      "tap": 0.0, 
      "type": "line"
    }, 
    {
      "angmax": 30.0, 
      "angmin": -30.0, 
      "baseMVA": 100.0, 
      "br_b": 0.0, 
      "br_r": 0.0, 
      "br_rdc": 0.0, 
      "br_status": 1, 
      "br_x": -0.01061, 
      "data": {}, 
      "f_bus": 5, 
      "gmd_br": null, 
      "gmd_r_Ohms": null, 
      "gmd_vdc": 0.0, 
      "hi_bus": 5, 
      "index": 16, 
      "len_km": 0.0, 
      "lo_bus": 21, 
      "name": "sc1", 
      "rate_a": 2000.0, 
      "rate_b": 0.0, 
      "rate_c": 0.0, 
      "shift": 0.0, 
      "sub": null, 
      "t_bus": 21, 
      "tap": 0.0, 
      "type": "series_cap"
    }, 
    {
      "angmax": 30.0, 
      "angmin": -30.0, 
      "baseMVA": 100.0, 
      "br_b": 0.0, 
      "br_r": 0.00017, 
      "br_rdc": 0.00017, 
      "br_status": 1, 
      "br_x": 0.014, 
      "config": "wye-delta", 
      "data": {}, 
      "dc_brid": null, 
      "f_bus": 1, 
      "gmd_br_hi": null, 
      "gmd_br_lo": null, 
      "gmd_k": 1.2, 
      "gmd_vdc": 0.0, 
      "hi_bus": 1, 
      "index": 17, 
      "len_km": 0.0, 
      "lo_bus": 2, 
      "name": "xf1", 
      "rate_a": 1644.5, 
      "rate_b": 0.0, 
      "rate_c": 0.0, 
      "rdc_hi": 0.1, 
      "rdc_lo": 0.001, 
      "shift": 0.0, 
      "sub": 1, 
      "t_bus": 2, 
      "tap": 0.0, 
      "type": "xf"
    }, 
    {
      "angmax": 30.0, 
      "angmin": -30.0, 
      "baseMVA": 100.0, 
      "br_b": 0.0, 
      "br_r": 0.00016, 
      "br_rdc": 0.00016, 
      "br_status": 1, 
      "br_x": 0.025, 
      "config": "gwye-gwye", 
      "data": {}, 
      "dc_brid": null, 
      "f_bus": 4, 
      "gmd_br_hi": 16, 
      "gmd_br_lo": 17, 
      "gmd_k": 1.6, 
      "gmd_vdc": 0.0, 
      "hi_bus": 4, 
      "index": 18, 
      "len_km": 0.0, 
      "lo_bus": 3, 
      "name": "xf2", 
      "rate_a": 2000.0, 
      "rate_b": 0.0, 
      "rate_c": 0.0, 
      "rdc_hi": 0.2, 
      "rdc_lo": 0.1, 
      "shift": 0.0, 
      "sub": 4, 
      "t_bus": 3, 
      "tap": 0.0, 
      "type": "xf"
    }, 
    {
      "angmax": 30.0, 
      "angmin": -30.0, 
      "baseMVA": 100.0, 
      "br_b": 0.0, 
      "br_r": 0.00016, 
      "br_rdc": 0.00016, 
      "br_status": 1, 
      "br_x": 0.025, 
      "config": "gwye-gwye", 
      "data": {}, 
      "dc_brid": null, 
      "f_bus": 4, 
      "gmd_br_hi": 18, 
      "gmd_br_lo": 19, 
      "gmd_k": 1.6, 
      "gmd_vdc": 0.0, 
      "hi_bus": 4, 
      "index": 19, 
      "len_km": 0.0, 
      "lo_bus": 3, 
      "name": "xf3", 
      "rate_a": 2000.0, 
      "rate_b": 0.0, 
      "rate_c": 0.0, 
      "rdc_hi": 0.2, 
      "rdc_lo": 0.1, 
      "shift": 0.0, 
      "sub": 4, 
      "t_bus": 3, 
      "tap": 0.0, 
      "type": "xf"
    }, 
    {
      "angmax": 30.0, 
      "angmin": -30.0, 
      "baseMVA": 100.0, 
      "br_b": 0.0, 
      "br_r": 7e-05, 
      "br_rdc": 7e-05, 
      "br_status": 1, 
      "br_x": 0.025, 
      "config": "gwye-gwye-auto", 
      "data": {}, 
      "dc_brid": null, 
      "dc_brid_hi": 20, 
      "dc_brid_lo": 21, 
      "f_bus": 3, 
      "gmd_br_common": 21, 
      "gmd_br_series": 20, 
      "gmd_k": 1.6, 
      "gmd_vdc": 0.0, 
      "hi_bus": 4, 
      "index": 20, 
      "len_km": 0.0, 
      "lo_bus": 3, 
      "name": "xf4", 
      "rate_a": 2000.0, 
      "rate_b": 0.0, 
      "rate_c": 0.0, 
      "rdc_common": null, 
      "rdc_hi": 0.06, 
      "rdc_lo": 0.04, 
      "rdc_series": null, 
      "shift": 0.0, 
      "sub": 4, 
      "t_bus": 4, 
      "tap": 0.0, 
      "type": "xf"
    }, 
    {
      "angmax": 30.0, 
      "angmin": -30.0, 
      "baseMVA": 100.0, 
      "br_b": 0.0, 
      "br_r": 7e-05, 
      "br_rdc": 7e-05, 
      "br_status": 1, 
      "br_x": 0.025, 
      "config": "gwye-gwye-auto", 
      "data": {}, 
      "dc_brid": null, 
      "dc_brid_hi": 22, 
      "dc_brid_lo": 23, 
      "f_bus": 3, 
      "gmd_br_common": 23, 
      "gmd_br_series": 22, 
      "gmd_k": 1.6, 
      "gmd_vdc": 0.0, 
      "hi_bus": 4, 
      "index": 21, 
      "len_km": 0.0, 
      "lo_bus": 3, 
      "name": "xf5", 
      "rate_a": 2000.0, 
      "rate_b": 0.0, 
      "rate_c": 0.0, 
      "rdc_common": null, 
      "rdc_hi": 0.06, 
      "rdc_lo": 0.04, 
      "rdc_series": null, 
      "shift": 0.0, 
      "sub": 4, 
      "t_bus": 4, 
      "tap": 0.0, 
      "type": "xf"
    }, 
    {
      "angmax": 30.0, 
      "angmin": -30.0, 
      "baseMVA": 100.0, 
      "br_b": 0.0, 
      "br_r": 7e-05, 
      "br_rdc": 7e-05, 
      "br_status": 1, 
      "br_x": 0.025, 
      "config": "gwye-gwye", 
      "data": {}, 
      "dc_brid": null, 
      "f_bus": 5, 
      "gmd_br_hi": 24, 
      "gmd_br_lo": 25, 
      "gmd_k": 1.6, 
      "gmd_vdc": 0.0, 
      "hi_bus": 5, 
      "index": 22, 
      "len_km": 0.0, 
      "lo_bus": 20, 
      "name": "xf6", 
      "rate_a": 2000.0, 
      "rate_b": 0.0, 
      "rate_c": 0.0, 
      "rdc_hi": 0.04, 
      "rdc_lo": 0.06, 
      "shift": 0.0, 
      "sub": 5, 
      "t_bus": 20, 
      "tap": 0.0, 
      "type": "xf"
    }, 
    {
      "angmax": 30.0, 
      "angmin": -30.0, 
      "baseMVA": 100.0, 
      "br_b": 0.0, 
      "br_r": 7e-05, 
      "br_rdc": 7e-05, 
      "br_status": 1, 
      "br_x": 0.025, 
      "config": "gwye-gwye", 
      "data": {}, 
      "dc_brid": null, 
      "f_bus": 5, 
      "gmd_br_hi": 26, 
      "gmd_br_lo": 27, 
      "gmd_k": 1.6, 
      "gmd_vdc": 0.0, 
      "hi_bus": 5, 
      "index": 23, 
      "len_km": 0.0, 
      "lo_bus": 20, 
      "name": "xf7", 
      "rate_a": 2000.0, 
      "rate_b": 0.0, 
      "rate_c": 0.0, 
      "rdc_hi": 0.04, 
      "rdc_lo": 0.06, 
      "shift": 0.0, 
      "sub": 5, 
      "t_bus": 20, 
      "tap": 0.0, 
      "type": "xf"
    }, 
    {
      "angmax": 30.0, 
      "angmin": -30.0, 
      "baseMVA": 100.0, 
      "br_b": 0.0, 
      "br_r": 0.00012, 
      "br_rdc": 0.00012, 
      "br_status": 1, 
      "br_x": 0.011, 
      "config": "gwye-delta", 
      "data": {}, 
      "dc_brid": null, 
      "f_bus": 6, 
      "gmd_br_hi": 28, 
      "gmd_br_lo": null, 
      "gmd_k": 0.8, 
      "gmd_vdc": 0.0, 
      "hi_bus": 6, 
      "index": 24, 
      "len_km": 0.0, 
      "lo_bus": 7, 
      "name": "xf8", 
      "rate_a": 1200.0, 
      "rate_b": 0.0, 
      "rate_c": 0.0, 
      "rdc_hi": 0.15, 
      "rdc_lo": 0.001, 
      "shift": 0.0, 
      "sub": 6, 
      "t_bus": 7, 
      "tap": 0.0, 
      "type": "xf"
    }, 
    {
      "angmax": 30.0, 
      "angmin": -30.0, 
      "baseMVA": 100.0, 
      "br_b": 0.0, 
      "br_r": 0.00012, 
      "br_rdc": 0.00012, 
      "br_status": 1, 
      "br_x": 0.011, 
      "config": "gwye-delta", 
      "data": {}, 
      "dc_brid": null, 
      "f_bus": 6, 
      "gmd_br_hi": 29, 
      "gmd_br_lo": null, 
      "gmd_k": 0.8, 
      "gmd_vdc": 0.0, 
      "hi_bus": 6, 
      "index": 25, 
      "len_km": 0.0, 
      "lo_bus": 8, 
      "name": "xf9", 
      "rate_a": 1200.0, 
      "rate_b": 0.0, 
      "rate_c": 0.0, 
      "rdc_hi": 0.15, 
      "rdc_lo": 0.001, 
      "shift": 0.0, 
      "sub": 6, 
      "t_bus": 8, 
      "tap": 0.0, 
      "type": "xf"
    }, 
    {
      "angmax": 30.0, 
      "angmin": -30.0, 
      "baseMVA": 100.0, 
      "br_b": 0.0, 
      "br_r": 8e-05, 
      "br_rdc": 8e-05, 
      "br_status": 1, 
      "br_x": 0.015, 
      "config": "gwye-delta", 
      "data": {}, 
      "dc_brid": null, 
      "f_bus": 12, 
      "gmd_br_hi": 30, 
      "gmd_br_lo": null, 
      "gmd_k": 0.8, 
      "gmd_vdc": 0.0, 
      "hi_bus": 12, 
      "index": 26, 
      "len_km": 0.0, 
      "lo_bus": 13, 
      "name": "xf10", 
      "rate_a": 750.0, 
      "rate_b": 0.0, 
      "rate_c": 0.0, 
      "rdc_hi": 0.1, 
      "rdc_lo": 0.001, 
      "shift": 0.0, 
      "sub": 8, 
      "t_bus": 13, 
      "tap": 0.0, 
      "type": "xf"
    }, 
    {
      "angmax": 30.0, 
      "angmin": -30.0, 
      "baseMVA": 100.0, 
      "br_b": 0.0, 
      "br_r": 8e-05, 
      "br_rdc": 8e-05, 
      "br_status": 1, 
      "br_x": 0.015, 
      "config": "gwye-delta", 
      "data": {}, 
      "dc_brid": null, 
      "f_bus": 12, 
      "gmd_br_hi": 31, 
      "gmd_br_lo": null, 
      "gmd_k": 0.8, 
      "gmd_vdc": 0.0, 
      "hi_bus": 12, 
      "index": 27, 
      "len_km": 0.0, 
      "lo_bus": 14, 
      "name": "xf11", 
      "rate_a": 750.0, 
      "rate_b": 0.0, 
      "rate_c": 0.0, 
      "rdc_hi": 0.1, 
      "rdc_lo": 0.001, 
      "shift": 0.0, 
      "sub": 8, 
      "t_bus": 14, 
      "tap": 0.0, 
      "type": "xf"
    }, 
    {
      "angmax": 30.0, 
      "angmin": -30.0, 
      "baseMVA": 100.0, 
      "br_b": 0.0, 
      "br_r": 7e-05, 
      "br_rdc": 7e-05, 
      "br_status": 1, 
      "br_x": 0.025, 
      "config": "gwye-gwye-auto", 
      "data": {}, 
      "dc_brid": null, 
      "dc_brid_hi": 32, 
      "dc_brid_lo": 33, 
      "f_bus": 16, 
      "gmd_br_common": 33, 
      "gmd_br_series": 32, 
      "gmd_k": 1.1, 
      "gmd_vdc": 0.0, 
      "hi_bus": 15, 
      "index": 28, 
      "len_km": 0.0, 
      "lo_bus": 16, 
      "name": "xf12", 
      "rate_a": 2000.0, 
      "rate_b": 0.0, 
      "rate_c": 0.0, 
      "rdc_common": null, 
      "rdc_hi": 0.06, 
      "rdc_lo": 0.04, 
      "rdc_series": null, 
      "shift": 0.0, 
      "sub": 3, 
      "t_bus": 15, 
      "tap": 0.0, 
      "type": "xf"
    }, 
    {
      "angmax": 30.0, 
      "angmin": -30.0, 
      "baseMVA": 100.0, 
      "br_b": 0.0, 
      "br_r": 7e-05, 
      "br_rdc": 7e-05, 
      "br_status": 1, 
      "br_x": 0.025, 
      "config": "gwye-gwye-auto", 
      "data": {}, 
      "dc_brid": null, 
      "dc_brid_hi": 34, 
      "dc_brid_lo": 35, 
      "f_bus": 16, 
      "gmd_br_common": 35, 
      "gmd_br_series": 34, 
      "gmd_k": 1.1, 
      "gmd_vdc": 0.0, 
      "hi_bus": 15, 
      "index": 29, 
      "len_km": 0.0, 
      "lo_bus": 16, 
      "name": "xf13", 
      "rate_a": 2000.0, 
      "rate_b": 0.0, 
      "rate_c": 0.0, 
      "rdc_common": null, 
      "rdc_hi": 0.06, 
      "rdc_lo": 0.04, 
      "rdc_series": null, 
      "shift": 0.0, 
      "sub": 3, 
      "t_bus": 15, 
      "tap": 0.0, 
      "type": "xf"
    }, 
    {
      "angmax": 30.0, 
      "angmin": -30.0, 
      "baseMVA": 100.0, 
      "br_b": 0.0, 
      "br_r": 0.00017, 
      "br_rdc": 0.00017, 
      "br_status": 1, 
      "br_x": 0.012, 
      "config": "gwye-delta", 
      "data": {}, 
      "dc_brid": null, 
      "f_bus": 17, 
      "gmd_br_hi": 36, 
      "gmd_br_lo": null, 
      "gmd_k": 1.2, 
      "gmd_vdc": 0.0, 
      "hi_bus": 17, 
      "index": 30, 
      "len_km": 0.0, 
      "lo_bus": 18, 
      "name": "xf14", 
      "rate_a": 1644.5, 
      "rate_b": 0.0, 
      "rate_c": 0.0, 
      "rdc_hi": 0.1, 
      "rdc_lo": 0.001, 
      "shift": 0.0, 
      "sub": 2, 
      "t_bus": 18, 
      "tap": 0.0, 
      "type": "xf"
    }, 
    {
      "angmax": 30.0, 
      "angmin": -30.0, 
      "baseMVA": 100.0, 
      "br_b": 0.0, 
      "br_r": 0.00017, 
      "br_rdc": 0.00017, 
      "br_status": 1, 
      "br_x": 0.013, 
      "config": "gwye-delta", 
      "data": {}, 
      "dc_brid": null, 
      "f_bus": 17, 
      "gmd_br_hi": 37, 
      "gmd_br_lo": null, 
      "gmd_k": 1.2, 
      "gmd_vdc": 0.0, 
      "hi_bus": 17, 
      "index": 31, 
      "len_km": 0.0, 
      "lo_bus": 19, 
      "name": "xf15", 
      "rate_a": 1644.5, 
      "rate_b": 0.0, 
      "rate_c": 0.0, 
      "rdc_hi": 0.1, 
      "rdc_lo": 0.001, 
      "shift": 0.0, 
      "sub": 2, 
      "t_bus": 19, 
      "tap": 0.0, 
      "type": "xf"
    }
  ], 
  "bus": [
    {
      "area": 1, 
      "base_kv": 22.0, 
      "bs": 0.0, 
      "bus_i": 1, 
      "bus_type": 3, 
      "gmd_baseMVA": 100.0, 
      "gmd_bus": 9, 
      "gmd_gs": 0.0, 
      "gmd_k": 0.001, 
      "gmd_neu_bus": null, 
      "gs": 0.0, 
      "index": 1, 
      "lat": 33.6135, 
      "lon": -87.37367, 
      "name": "bus1", 
      "nid": 1, 
      "pd": 0.0, 
      "qd": 0.0, 
      "sid": 1, 
      "sub": 1, 
      "type": "bus", 
      "va": -0.0, 
      "vm": 1.1, 
      "vmax": 1.3, 
      "vmin": 0.7, 
      "zone": 1
    }, 
    {
      "area": 1, 
      "base_kv": 345.0, 
      "bs": 0.0, 
      "bus_i": 2, 
      "bus_type": 3, 
      "gmd_baseMVA": 100.0, 
      "gmd_bus": 10, 
      "gmd_gs": 0.0, 
      "gmd_k": 0.001, 
      "gmd_neu_bus": null, 
      "gs": 0.0, 
      "index": 2, 
      "lat": 33.6135, 
      "lon": -87.37367, 
      "name": "bus2", 
      "nid": 2, 
      "pd": 0.0, 
      "qd": 0.0, 
      "sid": 1, 
      "sub": 1, 
      "type": "bus", 
      "va": -0.0, 
      "vm": 1.1, 
      "vmax": 1.3, 
      "vmin": 0.7, 
      "zone": 1
    }, 
    {
      "area": 1, 
      "base_kv": 345.0, 
      "bs": 0.0, 
      "bus_i": 3, 
      "bus_type": 3, 
      "gmd_baseMVA": 100.0, 
      "gmd_bus": 11, 
      "gmd_gs": 0.0, 
      "gmd_k": 0.001, 
      "gmd_neu_bus": null, 
      "gs": 0.0, 
      "index": 3, 
      "lat": 33.54789, 
      "lon": -86.07461, 
      "name": "bus3", 
      "nid": 3, 
      "pd": 0.0, 
      "qd": 0.0, 
      "sid": 4, 
      "sub": 4, 
      "type": "bus", 
      "va": -0.0, 
      "vm": 1.1, 
      "vmax": 1.3, 
      "vmin": 0.7, 
      "zone": 1
    }, 
    {
      "area": 1, 
      "base_kv": 500.0, 
      "bs": 546.62, 
      "bus_i": 4, 
      "bus_type": 3, 
      "gmd_baseMVA": 100.0, 
      "gmd_bus": 12, 
      "gmd_gs": 0.0, 
      "gmd_k": 0.001, 
      "gmd_neu_bus": null, 
      "gs": 0.0, 
      "index": 4, 
      "lat": 33.54789, 
      "lon": -86.07461, 
      "name": "bus4", 
      "nid": 4, 
      "pd": 1500.0, 
      "qd": 600.0, 
      "sid": 4, 
      "sub": 4, 
      "type": "bus", 
      "va": -0.0, 
      "vm": 1.1, 
      "vmax": 1.3, 
      "vmin": 0.7, 
      "zone": 1
    }, 
    {
      "area": 1, 
      "base_kv": 500.0, 
      "bs": 0.0, 
      "bus_i": 5, 
      "bus_type": 3, 
      "gmd_baseMVA": 100.0, 
      "gmd_bus": 13, 
      "gmd_gs": 0.0, 
      "gmd_k": 0.001, 
      "gmd_neu_bus": null, 
      "gs": 0.0, 
      "index": 5, 
      "lat": 32.70509, 
      "lon": -84.6634, 
      "name": "bus5", 
      "nid": 5, 
      "pd": 1200.0, 
      "qd": 350.0, 
      "sid": 5, 
      "sub": 5, 
      "type": "bus", 
      "va": -0.0, 
      "vm": 1.1, 
      "vmax": 1.3, 
      "vmin": 0.7, 
      "zone": 1
    }, 
    {
      "area": 1, 
      "base_kv": 500.0, 
      "bs": 0.0, 
      "bus_i": 6, 
      "bus_type": 3, 
      "gmd_baseMVA": 100.0, 
      "gmd_bus": 14, 
      "gmd_gs": 0.0, 
      "gmd_k": 0.001, 
      "gmd_neu_bus": null, 
      "gs": 0.0, 
      "index": 6, 
      "lat": 33.3773, 
      "lon": -82.6188, 
      "name": "bus6", 
      "nid": 6, 
      "pd": 300.0, 
      "qd": 150.0, 
      "sid": 6, 
      "sub": 6, 
      "type": "bus", 
      "va": -0.0, 
      "vm": 1.1, 
      "vmax": 1.3, 
      "vmin": 0.7, 
      "zone": 1
    }, 
    {
      "area": 1, 
      "base_kv": 18.0, 
      "bs": 0.0, 
      "bus_i": 7, 
      "bus_type": 3, 
      "gmd_baseMVA": 100.0, 
      "gmd_bus": 15, 
      "gmd_gs": 0.0, 
      "gmd_k": 0.001, 
      "gmd_neu_bus": null, 
      "gs": 0.0, 
      "index": 7, 
      "lat": 33.3773, 
      "lon": -82.6188, 
      "name": "bus7", 
      "nid": 7, 
      "pd": 0.0, 
      "qd": 0.0, 
      "sid": 6, 
      "sub": 6, 
      "type": "bus", 
      "va": -0.0, 
      "vm": 1.1, 
      "vmax": 1.3, 
      "vmin": 0.7, 
      "zone": 1
    }, 
    {
      "area": 1, 
      "base_kv": 22.0, 
      "bs": 0.0, 
      "bus_i": 8, 
      "bus_type": 3, 
      "gmd_baseMVA": 100.0, 
      "gmd_bus": 16, 
      "gmd_gs": 0.0, 
      "gmd_k": 0.001, 
      "gmd_neu_bus": null, 
      "gs": 0.0, 
      "index": 8, 
      "lat": 33.3773, 
      "lon": -82.6188, 
      "name": "bus8", 
      "nid": 8, 
      "pd": 0.0, 
      "qd": 0.0, 
      "sid": 6, 
      "sub": 6, 
      "type": "bus", 
      "va": -0.0, 
      "vm": 1.1, 
      "vmax": 1.3, 
      "vmin": 0.7, 
      "zone": 1
    }, 
    {
      "area": 1, 
      "base_kv": 500.0, 
      "bs": 0.0, 
      "bus_i": 11, 
      "bus_type": 3, 
      "gmd_baseMVA": 100.0, 
      "gmd_bus": 17, 
      "gmd_gs": 0.0, 
      "gmd_k": 0.001, 
      "gmd_neu_bus": null, 
      "gs": 0.0, 
      "index": 11, 
      "lat": 34.2522, 
      "lon": -82.8363, 
      "name": "bus11", 
      "nid": 11, 
      "pd": 0.0, 
      "qd": 0.0, 
      "sid": 7, 
      "sub": 7, 
      "type": "bus", 
      "va": -0.0, 
      "vm": 1.1, 
      "vmax": 1.3, 
      "vmin": 0.7, 
      "zone": 1
    }, 
    {
      "area": 1, 
      "base_kv": 500.0, 
      "bs": 0.0, 
      "bus_i": 12, 
      "bus_type": 3, 
      "gmd_baseMVA": 100.0, 
      "gmd_bus": 18, 
      "gmd_gs": 0.0, 
      "gmd_k": 0.001, 
      "gmd_neu_bus": null, 
      "gs": 0.0, 
      "index": 12, 
      "lat": 34.1956, 
      "lon": -81.098, 
      "name": "bus12", 
      "nid": 12, 
      "pd": 0.0, 
      "qd": 0.0, 
      "sid": 8, 
      "sub": 8, 
      "type": "bus", 
      "va": -0.0, 
      "vm": 1.1, 
      "vmax": 1.3, 
      "vmin": 0.7, 
      "zone": 1
    }, 
    {
      "area": 1, 
      "base_kv": 22.0, 
      "bs": 0.0, 
      "bus_i": 13, 
      "bus_type": 3, 
      "gmd_baseMVA": 100.0, 
      "gmd_bus": 19, 
      "gmd_gs": 0.0, 
      "gmd_k": 0.001, 
      "gmd_neu_bus": null, 
      "gs": 0.0, 
      "index": 13, 
      "lat": 34.1956, 
      "lon": -81.098, 
      "name": "bus13", 
      "nid": 13, 
      "pd": 0.0, 
      "qd": 0.0, 
      "sid": 8, 
      "sub": 8, 
      "type": "bus", 
      "va": -0.0, 
      "vm": 1.1, 
      "vmax": 1.3, 
      "vmin": 0.7, 
      "zone": 1
    }, 
    {
      "area": 1, 
      "base_kv": 22.0, 
      "bs": 0.0, 
      "bus_i": 14, 
      "bus_type": 3, 
      "gmd_baseMVA": 100.0, 
      "gmd_bus": 20, 
      "gmd_gs": 0.0, 
      "gmd_k": 0.001, 
      "gmd_neu_bus": null, 
      "gs": 0.0, 
      "index": 14, 
      "lat": 34.1956, 
      "lon": -81.098, 
      "name": "bus14", 
      "nid": 14, 
      "pd": 0.0, 
      "qd": 0.0, 
      "sid": 8, 
      "sub": 8, 
      "type": "bus", 
      "va": -0.0, 
      "vm": 1.1, 
      "vmax": 1.3, 
      "vmin": 0.7, 
      "zone": 1
    }, 
    {
      "area": 1, 
      "base_kv": 500.0, 
      "bs": 0.0, 
      "bus_i": 15, 
      "bus_type": 3, 
      "gmd_baseMVA": 100.0, 
      "gmd_bus": 21, 
      "gmd_gs": 0.0, 
      "gmd_k": 0.001, 
      "gmd_neu_bus": null, 
      "gs": 0.0, 
      "index": 15, 
      "lat": 33.95506, 
      "lon": -84.67935, 
      "name": "bus15", 
      "nid": 15, 
      "pd": 1200.0, 
      "qd": 500.0, 
      "sid": 3, 
      "sub": 3, 
      "type": "bus", 
      "va": -0.0, 
      "vm": 1.1, 
      "vmax": 1.3, 
      "vmin": 0.7, 
      "zone": 1
    }, 
    {
      "area": 1, 
      "base_kv": 345.0, 
      "bs": 212.53, 
      "bus_i": 16, 
      "bus_type": 3, 
      "gmd_baseMVA": 100.0, 
      "gmd_bus": 22, 
      "gmd_gs": 0.0, 
      "gmd_k": 0.001, 
      "gmd_neu_bus": null, 
      "gs": 0.0, 
      "index": 16, 
      "lat": 33.95506, 
      "lon": -84.67935, 
      "name": "bus16", 
      "nid": 16, 
      "pd": 500.0, 
      "qd": 200.0, 
      "sid": 3, 
      "sub": 3, 
      "type": "bus", 
      "va": -0.0, 
      "vm": 1.1, 
      "vmax": 1.3, 
      "vmin": 0.7, 
      "zone": 1
    }, 
    {
      "area": 1, 
      "base_kv": 345.0, 
      "bs": 0.0, 
      "bus_i": 17, 
      "bus_type": 3, 
      "gmd_baseMVA": 100.0, 
      "gmd_bus": 23, 
      "gmd_gs": 0.0, 
      "gmd_k": 0.001, 
      "gmd_neu_bus": null, 
      "gs": 0.0, 
      "index": 17, 
      "lat": 34.31044, 
      "lon": -86.36576, 
      "name": "bus17", 
      "nid": 17, 
      "pd": 0.0, 
      "qd": 0.0, 
      "sid": 2, 
      "sub": 2, 
      "type": "bus", 
      "va": -0.0, 
      "vm": 1.1, 
      "vmax": 1.3, 
      "vmin": 0.7, 
      "zone": 1
    }, 
    {
      "area": 1, 
      "base_kv": 22.0, 
      "bs": 0.0, 
      "bus_i": 18, 
      "bus_type": 3, 
      "gmd_baseMVA": 100.0, 
      "gmd_bus": 24, 
      "gmd_gs": 0.0, 
      "gmd_k": 0.001, 
      "gmd_neu_bus": null, 
      "gs": 0.0, 
      "index": 18, 
      "lat": 34.31044, 
      "lon": -86.36576, 
      "name": "bus18", 
      "nid": 18, 
      "pd": 0.0, 
      "qd": 0.0, 
      "sid": 2, 
      "sub": 2, 
      "type": "bus", 
      "va": -0.0, 
      "vm": 1.1, 
      "vmax": 1.3, 
      "vmin": 0.7, 
      "zone": 1
    }, 
    {
      "area": 1, 
      "base_kv": 22.0, 
      "bs": 0.0, 
      "bus_i": 19, 
      "bus_type": 3, 
      "gmd_baseMVA": 100.0, 
      "gmd_bus": 25, 
      "gmd_gs": 0.0, 
      "gmd_k": 0.001, 
      "gmd_neu_bus": null, 
      "gs": 0.0, 
      "index": 19, 
      "lat": 34.31044, 
      "lon": -86.36576, 
      "name": "bus19", 
      "nid": 19, 
      "pd": 0.0, 
      "qd": 0.0, 
      "sid": 2, 
      "sub": 2, 
      "type": "bus", 
      "va": -0.0, 
      "vm": 1.1, 
      "vmax": 1.3, 
      "vmin": 0.7, 
      "zone": 1
    }, 
    {
      "area": 1, 
      "base_kv": 345.0, 
      "bs": 0.0, 
      "bus_i": 20, 
      "bus_type": 3, 
      "gmd_baseMVA": 100.0, 
      "gmd_bus": 26, 
      "gmd_gs": 0.0, 
      "gmd_k": 0.001, 
      "gmd_neu_bus": null, 
      "gs": 0.0, 
      "index": 20, 
      "lat": 32.70509, 
      "lon": -84.6634, 
      "name": "bus20", 
      "nid": 20, 
      "pd": 0.0, 
      "qd": 0.0, 
      "sid": 5, 
      "sub": 5, 
      "type": "bus", 
      "va": -0.0, 
      "vm": 1.1, 
      "vmax": 1.3, 
      "vmin": 0.7, 
      "zone": 1
    }, 
    {
      "area": 1, 
      "base_kv": 500.0, 
      "bs": 0.0, 
      "bus_i": 21, 
      "bus_type": 3, 
      "gmd_baseMVA": 100.0, 
      "gmd_bus": 27, 
      "gmd_gs": 0.0, 
      "gmd_k": 0.001, 
      "gmd_neu_bus": null, 
      "gs": 0.0, 
      "index": 21, 
      "lat": 32.70509, 
      "lon": -84.6634, 
      "name": "bus21", 
      "nid": 21, 
      "pd": 0.0, 
      "qd": 0.0, 
      "sid": 5, 
      "sub": 5, 
      "type": "bus", 
      "va": -0.0, 
      "vm": 1.1, 
      "vmax": 1.3, 
      "vmin": 0.7, 
      "zone": 1
    }
  ], 
  "dcline": [], 
  "gen": [
    {
      "apf": 0.0, 
      "cost": [
        0.11, 
        5.0, 
        0.0
      ], 
      "gen_bus": 1, 
      "gen_status": 1, 
      "index": 1, 
      "mbase": 100.0, 
      "name": "gen1", 
      "pc1": 0.0, 
      "pc2": 0.0, 
      "pg": 777.32, 
      "pmax": 782.32, 
      "pmin": 772.32, 
      "qc1max": 0.0, 
      "qc1min": 0.0, 
      "qc2max": 0.0, 
      "qc2min": 0.0, 
      "qg": 56.57, 
      "qmax": 61.57, 
      "qmin": 51.57, 
      "ramp_30": 0.0, 
      "ramp_agc": 0.0, 
      "ramp_q": -1000.0, 
      "type": "gen", 
      "vg": 1.1
    }, 
    {
      "apf": 0.0, 
      "cost": [
        0.11, 
        5.0, 
        0.0
      ], 
      "gen_bus": 7, 
      "gen_status": 1, 
      "index": 2, 
      "mbase": 100.0, 
      "name": "gen2", 
      "pc1": 0.0, 
      "pc2": 0.0, 
      "pg": 900.0, 
      "pmax": 905.0, 
      "pmin": 895.0, 
      "qc1max": 0.0, 
      "qc1min": 0.0, 
      "qc2max": 0.0, 
      "qc2min": 0.0, 
      "qg": -51.56, 
      "qmax": -46.56, 
      "qmin": -56.56, 
      "ramp_30": 0.0, 
      "ramp_agc": 0.0, 
      "ramp_q": -1000.0, 
      "type": "gen", 
      "vg": 1.1
    }, 
    {
      "apf": 0.0, 
      "cost": [
        0.11, 
        5.0, 
        0.0
      ], 
      "gen_bus": 8, 
      "gen_status": 1, 
      "index": 3, 
      "mbase": 100.0, 
      "name": "gen3", 
      "pc1": 0.0, 
      "pc2": 0.0, 
      "pg": 900.0, 
      "pmax": 905.0, 
      "pmin": 895.0, 
      "qc1max": 0.0, 
      "qc1min": 0.0, 
      "qc2max": 0.0, 
      "qc2min": 0.0, 
      "qg": -51.56, 
      "qmax": -46.56, 
      "qmin": -56.56, 
      "ramp_30": 0.0, 
      "ramp_agc": 0.0, 
      "ramp_q": -1000.0, 
      "type": "gen", 
      "vg": 1.1
    }, 
    {
      "apf": 0.0, 
      "cost": [
        0.11, 
        5.0, 
        0.0
      ], 
      "gen_bus": 13, 
      "gen_status": 1, 
      "index": 4, 
      "mbase": 100.0, 
      "name": "gen4", 
      "pc1": 0.0, 
      "pc2": 0.0, 
      "pg": 500.0, 
      "pmax": 505.0, 
      "pmin": 495.0, 
      "qc1max": 0.0, 
      "qc1min": 0.0, 
      "qc2max": 0.0, 
      "qc2min": 0.0, 
      "qg": -5.61, 
      "qmax": -0.6100000000000003, 
      "qmin": -10.61, 
      "ramp_30": 0.0, 
      "ramp_agc": 0.0, 
      "ramp_q": -1000.0, 
      "type": "gen", 
      "vg": 1.1
    }, 
    {
      "apf": 0.0, 
      "cost": [
        0.11, 
        5.0, 
        0.0
      ], 
      "gen_bus": 14, 
      "gen_status": 1, 
      "index": 5, 
      "mbase": 100.0, 
      "name": "gen5", 
      "pc1": 0.0, 
      "pc2": 0.0, 
      "pg": 500.0, 
      "pmax": 505.0, 
      "pmin": 495.0, 
      "qc1max": 0.0, 
      "qc1min": 0.0, 
      "qc2max": 0.0, 
      "qc2min": 0.0, 
      "qg": -5.61, 
      "qmax": -0.6100000000000003, 
      "qmin": -10.61, 
      "ramp_30": 0.0, 
      "ramp_agc": 0.0, 
      "ramp_q": -1000.0, 
      "type": "gen", 
      "vg": 1.1
    }, 
    {
      "apf": 0.0, 
      "cost": [
        0.11, 
        5.0, 
        0.0
      ], 
      "gen_bus": 18, 
      "gen_status": 1, 
      "index": 6, 
      "mbase": 100.0, 
      "name": "gen6", 
      "pc1": 0.0, 
      "pc2": 0.0, 
      "pg": 600.0, 
      "pmax": 605.0, 
      "pmin": 595.0, 
      "qc1max": 0.0, 
      "qc1min": 0.0, 
      "qc2max": 0.0, 
      "qc2min": 0.0, 
      "qg": 23.78, 
      "qmax": 28.78, 
      "qmin": 18.78, 
      "ramp_30": 0.0, 
      "ramp_agc": 0.0, 
      "ramp_q": -1000.0, 
      "type": "gen", 
      "vg": 1.1
    }, 
    {
      "apf": 0.0, 
      "cost": [
        0.11, 
        5.0, 
        0.0
      ], 
      "gen_bus": 19, 
      "gen_status": 1, 
      "index": 7, 
      "mbase": 100.0, 
      "name": "gen7", 
      "pc1": 0.0, 
      "pc2": 0.0, 
      "pg": 600.0, 
      "pmax": 605.0, 
      "pmin": 595.0, 
      "qc1max": 0.0, 
      "qc1min": 0.0, 
      "qc2max": 0.0, 
      "qc2min": 0.0, 
      "qg": 23.78, 
      "qmax": 28.78, 
      "qmin": 18.78, 
      "ramp_30": 0.0, 
      "ramp_agc": 0.0, 
      "ramp_q": -1000.0, 
      "type": "gen", 
      "vg": 1.1
    }
  ], 
  "gencost": [
    {
      "cost": [
        0.11, 
        5.0, 
        0.0
      ], 
      "index": 1, 
      "model": 2, 
      "name": "gen1_cost", 
      "ncost": 3, 
      "shutdown": 0.0, 
      "startup": 0.0
    }, 
    {
      "cost": [
        0.11, 
        5.0, 
        0.0
      ], 
      "index": 2, 
      "model": 2, 
      "name": "gen2_cost", 
      "ncost": 3, 
      "shutdown": 0.0, 
      "startup": 0.0
    }, 
    {
      "cost": [
        0.11, 
        5.0, 
        0.0
      ], 
      "index": 3, 
      "model": 2, 
      "name": "gen3_cost", 
      "ncost": 3, 
      "shutdown": 0.0, 
      "startup": 0.0
    }, 
    {
      "cost": [
        0.11, 
        5.0, 
        0.0
      ], 
      "index": 4, 
      "model": 2, 
      "name": "gen4_cost", 
      "ncost": 3, 
      "shutdown": 0.0, 
      "startup": 0.0
    }, 
    {
      "cost": [
        0.11, 
        5.0, 
        0.0
      ], 
      "index": 5, 
      "model": 2, 
      "name": "gen5_cost", 
      "ncost": 3, 
      "shutdown": 0.0, 
      "startup": 0.0
    }, 
    {
      "cost": [
        0.11, 
        5.0, 
        0.0
      ], 
      "index": 6, 
      "model": 2, 
      "name": "gen6_cost", 
      "ncost": 3, 
      "shutdown": 0.0, 
      "startup": 0.0
    }, 
    {
      "cost": [
        0.11, 
        5.0, 
        0.0
      ], 
      "index": 7, 
      "model": 2, 
      "name": "gen7_cost", 
      "ncost": 3, 
      "shutdown": 0.0, 
      "startup": 0.0
    }
  ], 
  "gmd_branch": [
    {
      "br_r": 1.1704125, 
      "br_status": 1, 
      "br_v": 120.60003474069319, 
      "data": {}, 
      "f_bus": 10, 
      "index": 1, 
      "len_km": 120.81939273462899, 
      "name": "dc_br1", 
      "parent_index": 1, 
      "parent_name": "br1", 
      "t_bus": 11, 
      "type": "line"
    }, 
    {
      "br_r": 0.7833333333333333, 
      "br_status": 1, 
      "br_v": 131.6938150979946, 
      "data": {}, 
      "f_bus": 12, 
      "index": 2, 
      "len_km": 161.49436872495582, 
      "name": "dc_br2", 
      "parent_index": 2, 
      "parent_name": "br2", 
      "t_bus": 13, 
      "type": "line"
    }, 
    {
      "br_r": 0.7833333333333333, 
      "br_status": 1, 
      "br_v": 131.6938150979946, 
      "data": {}, 
      "f_bus": 12, 
      "index": 3, 
      "len_km": 161.49436872495582, 
      "name": "dc_br3", 
      "parent_index": 3, 
      "parent_name": "br3", 
      "t_bus": 13, 
      "type": "line"
    }, 
    {
      "br_r": 1.5583333333333333, 
      "br_status": 1, 
      "br_v": 321.2612206582465, 
      "data": {}, 
      "f_bus": 12, 
      "index": 4, 
      "len_km": 321.81790843092256, 
      "name": "dc_br4", 
      "parent_index": 4, 
      "parent_name": "br4", 
      "t_bus": 14, 
      "type": "line"
    }, 
    {
      "br_r": 0.9916666666666667, 
      "br_status": 1, 
      "br_v": 190.9859010213294, 
      "data": {}, 
      "f_bus": 13, 
      "index": 5, 
      "len_km": 205.02104684716693, 
      "name": "dc_br5", 
      "parent_index": 5, 
      "parent_name": "br5", 
      "t_bus": 14, 
      "type": "line"
    }, 
    {
      "br_r": 0.48333333333333334, 
      "br_status": 1, 
      "br_v": -20.137238063195745, 
      "data": {}, 
      "f_bus": 14, 
      "index": 6, 
      "len_km": 99.11107851638545, 
      "name": "dc_br6", 
      "parent_index": 6, 
      "parent_name": "br6", 
      "t_bus": 17, 
      "type": "line"
    }, 
    {
      "br_r": 0.775, 
      "br_status": 1, 
      "br_v": 160.17017349968367, 
      "data": {}, 
      "f_bus": 17, 
      "index": 7, 
      "len_km": 160.29318090362787, 
      "name": "dc_br7", 
      "parent_index": 7, 
      "parent_name": "br7", 
      "t_bus": 18, 
      "type": "line"
    }, 
    {
      "br_r": 0.6583333333333333, 
      "br_status": 1, 
      "br_v": -129.27518497259706, 
      "data": {}, 
      "f_bus": 21, 
      "index": 8, 
      "len_km": 136.9370288107594, 
      "name": "dc_br8", 
      "parent_index": 8, 
      "parent_name": "br8", 
      "t_bus": 12, 
      "type": "line"
    }, 
    {
      "br_r": 0.9750000000000001, 
      "br_status": 1, 
      "br_v": 191.1051972595808, 
      "data": {}, 
      "f_bus": 21, 
      "index": 9, 
      "len_km": 201.56362020739277, 
      "name": "dc_br9", 
      "parent_index": 9, 
      "parent_name": "br9", 
      "t_bus": 14, 
      "type": "line"
    }, 
    {
      "br_r": 0.9750000000000001, 
      "br_status": 1, 
      "br_v": 191.1051972595808, 
      "data": {}, 
      "f_bus": 21, 
      "index": 10, 
      "len_km": 201.56362020739277, 
      "name": "dc_br10", 
      "parent_index": 10, 
      "parent_name": "br10", 
      "t_bus": 14, 
      "type": "line"
    }, 
    {
      "br_r": 1.34895, 
      "br_status": 1, 
      "br_v": 1.4850062354159403, 
      "data": {}, 
      "f_bus": 22, 
      "index": 11, 
      "len_km": 138.6435468799988, 
      "name": "dc_br11", 
      "parent_index": 11, 
      "parent_name": "br11", 
      "t_bus": 26, 
      "type": "line"
    }, 
    {
      "br_r": 1.5552599999999999, 
      "br_status": 1, 
      "br_v": -155.55611343458276, 
      "data": {}, 
      "f_bus": 22, 
      "index": 12, 
      "len_km": 160.47336211212942, 
      "name": "dc_br12", 
      "parent_index": 12, 
      "parent_name": "br12", 
      "t_bus": 23, 
      "type": "line"
    }, 
    {
      "br_r": 2.3130525, 
      "br_status": 1, 
      "br_v": 158.17375406876596, 
      "data": {}, 
      "f_bus": 23, 
      "index": 13, 
      "len_km": 238.16588676612818, 
      "name": "dc_br13", 
      "parent_index": 13, 
      "parent_name": "br13", 
      "t_bus": 26, 
      "type": "line"
    }, 
    {
      "br_r": 1.17438, 
      "br_status": 1, 
      "br_v": -93.15718079092285, 
      "data": {}, 
      "f_bus": 23, 
      "index": 14, 
      "len_km": 121.05590409010416, 
      "name": "dc_br14", 
      "parent_index": 14, 
      "parent_name": "br14", 
      "t_bus": 10, 
      "type": "line"
    }, 
    {
      "br_r": 1.1666666666666667, 
      "br_status": 1, 
      "br_v": 169.82073202204822, 
      "data": {}, 
      "f_bus": 27, 
      "index": 15, 
      "len_km": 241.42124977424734, 
      "name": "dc_br15", 
      "parent_index": 15, 
      "parent_name": "br15", 
      "t_bus": 17, 
      "type": "line"
    }, 
    {
      "br_r": 0.06666666666666667, 
      "br_status": 1, 
      "br_v": 0.0, 
      "data": {}, 
      "f_bus": 12, 
      "index": 16, 
      "len_km": 0.0, 
      "name": "dc_xf2_hi", 
      "parent_index": 18, 
      "parent_name": "xf2", 
      "t_bus": 4, 
      "type": "gwye winding high-side"
    }, 
    {
      "br_r": 0.03333333333333333, 
      "br_status": 1, 
      "br_v": 0.0, 
      "data": {}, 
      "f_bus": 11, 
      "index": 17, 
      "len_km": 0.0, 
      "name": "dc_xf2_lo", 
      "parent_index": 18, 
      "parent_name": "xf2", 
      "t_bus": 4, 
      "type": "gwye winding low-side"
    }, 
    {
      "br_r": 0.06666666666666667, 
      "br_status": 1, 
      "br_v": 0.0, 
      "data": {}, 
      "f_bus": 12, 
      "index": 18, 
      "len_km": 0.0, 
      "name": "dc_xf3_hi", 
      "parent_index": 19, 
      "parent_name": "xf3", 
      "t_bus": 4, 
      "type": "gwye winding high-side"
    }, 
    {
      "br_r": 0.03333333333333333, 
      "br_status": 1, 
      "br_v": 0.0, 
      "data": {}, 
      "f_bus": 11, 
      "index": 19, 
      "len_km": 0.0, 
      "name": "dc_xf3_lo", 
      "parent_index": 19, 
      "parent_name": "xf3", 
      "t_bus": 4, 
      "type": "gwye winding low-side"
    }, 
    {
      "br_r": 0.02, 
      "br_status": 1, 
      "br_v": 0.0, 
      "data": {}, 
      "f_bus": 11, 
      "index": 20, 
      "len_km": 0.0, 
      "name": "dc_xf4_series", 
      "parent_index": 20, 
      "parent_name": "xf4", 
      "t_bus": 12, 
      "type": "gwye auto series winding (high)"
    }, 
    {
      "br_r": 0.013333333333333334, 
      "br_status": 1, 
      "br_v": 0.0, 
      "data": {}, 
      "f_bus": 11, 
      "index": 21, 
      "len_km": 0.0, 
      "name": "dc_xf4_common", 
      "parent_index": 20, 
      "parent_name": "xf4", 
      "t_bus": 4, 
      "type": "gwye auto common winding (low)"
    }, 
    {
      "br_r": 0.02, 
      "br_status": 1, 
      "br_v": 0.0, 
      "data": {}, 
      "f_bus": 11, 
      "index": 22, 
      "len_km": 0.0, 
      "name": "dc_xf5_series", 
      "parent_index": 21, 
      "parent_name": "xf5", 
      "t_bus": 12, 
      "type": "gwye auto series winding (high)"
    }, 
    {
      "br_r": 0.013333333333333334, 
      "br_status": 1, 
      "br_v": 0.0, 
      "data": {}, 
      "f_bus": 11, 
      "index": 23, 
      "len_km": 0.0, 
      "name": "dc_xf5_common", 
      "parent_index": 21, 
      "parent_name": "xf5", 
      "t_bus": 4, 
      "type": "gwye auto common winding (low)"
    }, 
    {
      "br_r": 0.013333333333333334, 
      "br_status": 1, 
      "br_v": 0.0, 
      "data": {}, 
      "f_bus": 13, 
      "index": 24, 
      "len_km": 0.0, 
      "name": "dc_xf6_hi", 
      "parent_index": 22, 
      "parent_name": "xf6", 
      "t_bus": 5, 
      "type": "gwye winding high-side"
    }, 
    {
      "br_r": 0.02, 
      "br_status": 1, 
      "br_v": 0.0, 
      "data": {}, 
      "f_bus": 26, 
      "index": 25, 
      "len_km": 0.0, 
      "name": "dc_xf6_lo", 
      "parent_index": 22, 
      "parent_name": "xf6", 
      "t_bus": 5, 
      "type": "gwye winding low-side"
    }, 
    {
      "br_r": 0.013333333333333334, 
      "br_status": 1, 
      "br_v": 0.0, 
      "data": {}, 
      "f_bus": 13, 
      "index": 26, 
      "len_km": 0.0, 
      "name": "dc_xf7_hi", 
      "parent_index": 23, 
      "parent_name": "xf7", 
      "t_bus": 5, 
      "type": "gwye winding high-side"
    }, 
    {
      "br_r": 0.02, 
      "br_status": 1, 
      "br_v": 0.0, 
      "data": {}, 
      "f_bus": 26, 
      "index": 27, 
      "len_km": 0.0, 
      "name": "dc_xf7_lo", 
      "parent_index": 23, 
      "parent_name": "xf7", 
      "t_bus": 5, 
      "type": "gwye winding low-side"
    }, 
    {
      "br_r": 0.049999999999999996, 
      "br_status": 1, 
      "br_v": 0.0, 
      "data": {}, 
      "f_bus": 14, 
      "index": 28, 
      "len_km": 0.0, 
      "name": "dc_xf8_hi", 
      "parent_index": 24, 
      "parent_name": "xf8", 
      "t_bus": 6, 
      "type": "gwye winding high-side"
    }, 
    {
      "br_r": 0.049999999999999996, 
      "br_status": 1, 
      "br_v": 0.0, 
      "data": {}, 
      "f_bus": 14, 
      "index": 29, 
      "len_km": 0.0, 
      "name": "dc_xf9_hi", 
      "parent_index": 25, 
      "parent_name": "xf9", 
      "t_bus": 6, 
      "type": "gwye winding high-side"
    }, 
    {
      "br_r": 0.03333333333333333, 
      "br_status": 1, 
      "br_v": 0.0, 
      "data": {}, 
      "f_bus": 18, 
      "index": 30, 
      "len_km": 0.0, 
      "name": "dc_xf10_hi", 
      "parent_index": 26, 
      "parent_name": "xf10", 
      "t_bus": 8, 
      "type": "gwye winding high-side"
    }, 
    {
      "br_r": 0.03333333333333333, 
      "br_status": 1, 
      "br_v": 0.0, 
      "data": {}, 
      "f_bus": 18, 
      "index": 31, 
      "len_km": 0.0, 
      "name": "dc_xf11_hi", 
      "parent_index": 27, 
      "parent_name": "xf11", 
      "t_bus": 8, 
      "type": "gwye winding high-side"
    }, 
    {
      "br_r": 0.02, 
      "br_status": 1, 
      "br_v": 0.0, 
      "data": {}, 
      "f_bus": 22, 
      "index": 32, 
      "len_km": 0.0, 
      "name": "dc_xf12_series", 
      "parent_index": 28, 
      "parent_name": "xf12", 
      "t_bus": 21, 
      "type": "gwye auto series winding (high)"
    }, 
    {
      "br_r": 0.013333333333333334, 
      "br_status": 1, 
      "br_v": 0.0, 
      "data": {}, 
      "f_bus": 22, 
      "index": 33, 
      "len_km": 0.0, 
      "name": "dc_xf12_common", 
      "parent_index": 28, 
      "parent_name": "xf12", 
      "t_bus": 3, 
      "type": "gwye auto common winding (low)"
    }, 
    {
      "br_r": 0.02, 
      "br_status": 1, 
      "br_v": 0.0, 
      "data": {}, 
      "f_bus": 22, 
      "index": 34, 
      "len_km": 0.0, 
      "name": "dc_xf13_series", 
      "parent_index": 29, 
      "parent_name": "xf13", 
      "t_bus": 21, 
      "type": "gwye auto series winding (high)"
    }, 
    {
      "br_r": 0.013333333333333334, 
      "br_status": 1, 
      "br_v": 0.0, 
      "data": {}, 
      "f_bus": 22, 
      "index": 35, 
      "len_km": 0.0, 
      "name": "dc_xf13_common", 
      "parent_index": 29, 
      "parent_name": "xf13", 
      "t_bus": 3, 
      "type": "gwye auto common winding (low)"
    }, 
    {
      "br_r": 0.03333333333333333, 
      "br_status": 1, 
      "br_v": 0.0, 
      "data": {}, 
      "f_bus": 23, 
      "index": 36, 
      "len_km": 0.0, 
      "name": "dc_xf14_hi", 
      "parent_index": 30, 
      "parent_name": "xf14", 
      "t_bus": 2, 
      "type": "gwye winding high-side"
    }, 
    {
      "br_r": 0.03333333333333333, 
      "br_status": 1, 
      "br_v": 0.0, 
      "data": {}, 
      "f_bus": 23, 
      "index": 37, 
      "len_km": 0.0, 
      "name": "dc_xf15_hi", 
      "parent_index": 31, 
      "parent_name": "xf15", 
      "t_bus": 2, 
      "type": "gwye winding high-side"
    }
  ], 
  "gmd_bus": [
    {
      "bus_i": 1, 
      "g_gnd": 5.0, 
      "index": 1, 
      "name": "dc_sub1", 
      "parent_index": 1, 
      "parent_name": "sub1", 
      "parent_type": "sub"
    }, 
    {
      "bus_i": 2, 
      "g_gnd": 5.0, 
      "index": 2, 
      "name": "dc_sub2", 
      "parent_index": 2, 
      "parent_name": "sub2", 
      "parent_type": "sub"
    }, 
    {
      "bus_i": 3, 
      "g_gnd": 5.0, 
      "index": 3, 
      "name": "dc_sub3", 
      "parent_index": 3, 
      "parent_name": "sub3", 
      "parent_type": "sub"
    }, 
    {
      "bus_i": 4, 
      "g_gnd": 1.0, 
      "index": 4, 
      "name": "dc_sub4", 
      "parent_index": 4, 
      "parent_name": "sub4", 
      "parent_type": "sub"
    }, 
    {
      "bus_i": 5, 
      "g_gnd": 10.0, 
      "index": 5, 
      "name": "dc_sub5", 
      "parent_index": 5, 
      "parent_name": "sub5", 
      "parent_type": "sub"
    }, 
    {
      "bus_i": 6, 
      "g_gnd": 10.0, 
      "index": 6, 
      "name": "dc_sub6", 
      "parent_index": 6, 
      "parent_name": "sub6", 
      "parent_type": "sub"
    }, 
    {
      "bus_i": 7, 
      "g_gnd": 4.621712806766188, 
      "index": 7, 
      "name": "dc_sub7", 
      "parent_index": 7, 
      "parent_name": "sub7", 
      "parent_type": "sub"
    }, 
    {
      "bus_i": 8, 
      "g_gnd": 10.0, 
      "index": 8, 
      "name": "dc_sub8", 
      "parent_index": 8, 
      "parent_name": "sub8", 
      "parent_type": "sub"
    }, 
    {
      "bus_i": 9, 
      "g_gnd": 0.0, 
      "index": 9, 
      "name": "dc_bus1", 
      "parent_index": 1, 
      "parent_name": "bus1", 
      "parent_type": "bus"
    }, 
    {
      "bus_i": 10, 
      "g_gnd": 0.0, 
      "index": 10, 
      "name": "dc_bus2", 
      "parent_index": 2, 
      "parent_name": "bus2", 
      "parent_type": "bus"
    }, 
    {
      "bus_i": 11, 
      "g_gnd": 0.0, 
      "index": 11, 
      "name": "dc_bus3", 
      "parent_index": 3, 
      "parent_name": "bus3", 
      "parent_type": "bus"
    }, 
    {
      "bus_i": 12, 
      "g_gnd": 0.0, 
      "index": 12, 
      "name": "dc_bus4", 
      "parent_index": 4, 
      "parent_name": "bus4", 
      "parent_type": "bus"
    }, 
    {
      "bus_i": 13, 
      "g_gnd": 0.0, 
      "index": 13, 
      "name": "dc_bus5", 
      "parent_index": 5, 
      "parent_name": "bus5", 
      "parent_type": "bus"
    }, 
    {
      "bus_i": 14, 
      "g_gnd": 0.0, 
      "index": 14, 
      "name": "dc_bus6", 
      "parent_index": 6, 
      "parent_name": "bus6", 
      "parent_type": "bus"
    }, 
    {
      "bus_i": 15, 
      "g_gnd": 0.0, 
      "index": 15, 
      "name": "dc_bus7", 
      "parent_index": 7, 
      "parent_name": "bus7", 
      "parent_type": "bus"
    }, 
    {
      "bus_i": 16, 
      "g_gnd": 0.0, 
      "index": 16, 
      "name": "dc_bus8", 
      "parent_index": 8, 
      "parent_name": "bus8", 
      "parent_type": "bus"
    }, 
    {
      "bus_i": 17, 
      "g_gnd": 0.0, 
      "index": 17, 
      "name": "dc_bus11", 
      "parent_index": 11, 
      "parent_name": "bus11", 
      "parent_type": "bus"
    }, 
    {
      "bus_i": 18, 
      "g_gnd": 0.0, 
      "index": 18, 
      "name": "dc_bus12", 
      "parent_index": 12, 
      "parent_name": "bus12", 
      "parent_type": "bus"
    }, 
    {
      "bus_i": 19, 
      "g_gnd": 0.0, 
      "index": 19, 
      "name": "dc_bus13", 
      "parent_index": 13, 
      "parent_name": "bus13", 
      "parent_type": "bus"
    }, 
    {
      "bus_i": 20, 
      "g_gnd": 0.0, 
      "index": 20, 
      "name": "dc_bus14", 
      "parent_index": 14, 
      "parent_name": "bus14", 
      "parent_type": "bus"
    }, 
    {
      "bus_i": 21, 
      "g_gnd": 0.0, 
      "index": 21, 
      "name": "dc_bus15", 
      "parent_index": 15, 
      "parent_name": "bus15", 
      "parent_type": "bus"
    }, 
    {
      "bus_i": 22, 
      "g_gnd": 0.0, 
      "index": 22, 
      "name": "dc_bus16", 
      "parent_index": 16, 
      "parent_name": "bus16", 
      "parent_type": "bus"
    }, 
    {
      "bus_i": 23, 
      "g_gnd": 0.0, 
      "index": 23, 
      "name": "dc_bus17", 
      "parent_index": 17, 
      "parent_name": "bus17", 
      "parent_type": "bus"
    }, 
    {
      "bus_i": 24, 
      "g_gnd": 0.0, 
      "index": 24, 
      "name": "dc_bus18", 
      "parent_index": 18, 
      "parent_name": "bus18", 
      "parent_type": "bus"
    }, 
    {
      "bus_i": 25, 
      "g_gnd": 0.0, 
      "index": 25, 
      "name": "dc_bus19", 
      "parent_index": 19, 
      "parent_name": "bus19", 
      "parent_type": "bus"
    }, 
    {
      "bus_i": 26, 
      "g_gnd": 0.0, 
      "index": 26, 
      "name": "dc_bus20", 
      "parent_index": 20, 
      "parent_name": "bus20", 
      "parent_type": "bus"
    }, 
    {
      "bus_i": 27, 
      "g_gnd": 0.0, 
      "index": 27, 
      "name": "dc_bus21", 
      "parent_index": 21, 
      "parent_name": "bus21", 
      "parent_type": "bus"
    }
  ], 
  "gmd_e_field_dir": 90.0, 
  "gmd_e_field_mag": 1.0, 
  "name": "epri21", 
  "sub": [
    {
      "bus_i": 1, 
      "dc_bus_Factory": null, 
      "gmd_bus": 1, 
      "gmd_rs_Ohms": 0.2, 
      "index": 1, 
      "lat": 33.6135, 
      "lon": -87.37367, 
      "name": "sub1", 
      "sid": 1, 
      "type": "sub"
    }, 
    {
      "bus_i": 2, 
      "dc_bus_Factory": null, 
      "gmd_bus": 2, 
      "gmd_rs_Ohms": 0.2, 
      "index": 2, 
      "lat": 34.31044, 
      "lon": -86.36576, 
      "name": "sub2", 
      "sid": 2, 
      "type": "sub"
    }, 
    {
      "bus_i": 3, 
      "dc_bus_Factory": null, 
      "gmd_bus": 3, 
      "gmd_rs_Ohms": 0.2, 
      "index": 3, 
      "lat": 33.95506, 
      "lon": -84.67935, 
      "name": "sub3", 
      "sid": 3, 
      "type": "sub"
    }, 
    {
      "bus_i": 4, 
      "dc_bus_Factory": null, 
      "gmd_bus": 4, 
      "gmd_rs_Ohms": 1.0, 
      "index": 4, 
      "lat": 33.54789, 
      "lon": -86.07461, 
      "name": "sub4", 
      "sid": 4, 
      "type": "sub"
    }, 
    {
      "bus_i": 5, 
      "dc_bus_Factory": null, 
      "gmd_bus": 5, 
      "gmd_rs_Ohms": 0.1, 
      "index": 5, 
      "lat": 32.70509, 
      "lon": -84.6634, 
      "name": "sub5", 
      "sid": 5, 
      "type": "sub"
    }, 
    {
      "bus_i": 6, 
      "dc_bus_Factory": null, 
      "gmd_bus": 6, 
      "gmd_rs_Ohms": 0.1, 
      "index": 6, 
      "lat": 33.3773, 
      "lon": -82.6188, 
      "name": "sub6", 
      "sid": 6, 
      "type": "sub"
    }, 
    {
      "bus_i": 7, 
      "dc_bus_Factory": null, 
      "gmd_bus": 7, 
      "gmd_rs_Ohms": 0.21637, 
      "index": 7, 
      "lat": 34.2522, 
      "lon": -82.8363, 
      "name": "sub7", 
      "sid": 7, 
      "type": "sub"
    }, 
    {
      "bus_i": 8, 
      "dc_bus_Factory": null, 
      "gmd_bus": 8, 
      "gmd_rs_Ohms": 0.1, 
      "index": 8, 
      "lat": 34.1956, 
      "lon": -81.098, 
      "name": "sub8", 
      "sid": 8, 
      "type": "sub"
    }
  ], 
  "version": "nestay-0.1"
}